-------------------------------------------------------
          Amber 9  SANDER                              2006
          -------------------------------------------------------

  [-O]verwriting output

File Assignments:

 Here is the input file:

MD2.in
&cntrl
imin = 0, ntb = 2, irest = 1, ntx = 7
taup = 2.0, ntp = 1
ntpr = 100, ntwx = 100
ntt = 3, gamma_ln = 1.0
tempi = 310.15, temp0 = 310.15
nstlim = 100000, dt = 0.001
cut = 10.0
/

--------------------------------------------------------------------------------
   1.  RESOURCE   USE:
--------------------------------------------------------------------------------

 getting new box info from bottom of inpcrd

 NATOM  =   34161 NTYPES =      17 NBONH =   32600 MBONA  =    1585
 NTHETH =    3784 MTHETA =    2151 NPHIH =    7108 MPHIA  =    5032
 NHPARM =       0 NPARM  =       0 NNB   =   59147 NRES   =   10518
 NBONA  =    1585 NTHETA =    2151 NPHIA =    5032 NUMBND =      62
 NUMANG =     130 NPTRA  =      59 NATYP =      45 NPHB   =       1
 IFBOX  =       1 NMXRS  =      85 IFCAP =       0 NEXTRA =       0
 NCOPY  =       0

     BOX TYPE: RECTILINEAR

--------------------------------------------------------------------------------
   2.  CONTROL  DATA  FOR  THE  RUN
--------------------------------------------------------------------------------

General flags:
     imin    =       0, nmropt  =       0

Nature and format of input:
     ntx     =       7, irest   =       1, ntrx    =       1

Nature and format of output:
     ntxo    =       1, ntpr    =     100, ntrx    =       1, ntwr    =     500
     iwrap   =       0, ntwx    =     100, ntwv    =       0, ntwe    =       0
     ioutfm  =       0, ntwprt  =       0, idecomp =       0, rbornstat=      0

Potential function:
     ntf     =       1, ntb     =       2, igb     =       0, nsnb    =      25
     ipol    =       0, gbsa    =       0, iesp    =       0
     dielc   =   1.00000, cut     =  10.00000, intdiel =   1.00000
     scnb    =   2.00000, scee    =   1.20000

Frozen or restrained atoms:
     ibelly  =       0, ntr     =       0

Molecular dynamics:
     nstlim  =    100000, nscm    =      1000, nrespa  =         1
     t       =   0.00000, dt      =   0.00100, vlimit  =  20.00000

Langevin dynamics temperature regulation:
     ig      =   71277
     temp0   = 310.15000, tempi   = 310.15000, gamma_ln=   1.00000

Pressure regulation:
     ntp     =       1
     pres0   =   1.00000, comp    =  44.60000, taup    =   2.00000

Ewald parameters:
     verbose =       0, ew_type =       0, nbflag  =       1, use_pme =       1
     vdwmeth =       1, eedmeth =       1, netfrc  =       1
     Box X =   87.721   Box Y =   69.147   Box Z =   71.425
     Alpha =   90.000   Beta  =   90.000   Gamma =   90.000
     NFFT1 =   90       NFFT2 =   72       NFFT3 =   72
     Cutoff=   10.000   Tol   =0.100E-04
     Ewald Coefficient =  0.27511
     Interpolation order =    4

--------------------------------------------------------------------------------
   3.  ATOMIC COORDINATES AND VELOCITIES
--------------------------------------------------------------------------------

 begin time read from input coords =    20.000 ps

 Number of triangulated 3-point waters found:    10314

     Sum of charges from parm topology file =  -0.00000013
     Forcing neutrality...

--------------------------------------------------------------------------------
   4.  RESULTS
 NSTEP =      100   TIME(PS) =      20.100  TEMP(K) =   311.47  PRESS =  -348.0
 Etot   =    -66951.1114  EKtot   =     31715.7482  EPtot      =    -98666.8597
 BOND   =     20670.2407  ANGLE   =      1589.0384  DIHED      =      2177.4117
 1-4 NB =       699.1049  1-4 EEL =      8574.8381  VDWAALS    =     18372.0577
 EELEC  =   -150749.5510  EHBOND  =         0.0000  RESTRAINT  =         0.0000
 EKCMT  =      9657.6568  VIRIAL  =     12909.3191  VOLUME     =    432758.1078
                                                    Density    =         0.7987
 Ewald error estimate:   0.5377E-04
 ------------------------------------------------------------------------------

      A V E R A G E S   O V E R  100000 S T E P S

 NSTEP =   100000   TIME(PS) =     120.000  TEMP(K) =   310.59  PRESS =  -117.9
 Etot   =    -69195.3429  EKtot   =     31626.8205  EPtot      =   -100822.1634
 BOND   =     20801.0134  ANGLE   =      1609.3668  DIHED      =      2169.3409
 1-4 NB =       709.1011  1-4 EEL =      8601.2958  VDWAALS    =     18557.8752
 EELEC  =   -153270.1566  EHBOND  =         0.0000  RESTRAINT  =         0.0000
 EKCMT  =      9566.4649  VIRIAL  =     10535.9380  VOLUME     =    350975.7075
                                                    Density    =         0.9909
 Ewald error estimate:   0.5211E-04
 ------------------------------------------------------------------------------

      R M S  F L U C T U A T I O N S

 NSTEP =   100000   TIME(PS) =     120.000  TEMP(K) =     1.31  PRESS =   191.5
 Etot   =       909.3995  EKtot   =       133.0877  EPtot      =       880.7840
 BOND   =       163.5517  ANGLE   =        30.7380  DIHED      =        17.5633
 1-4 NB =        11.2878  1-4 EEL =        28.5187  VDWAALS    =       220.8289
 EELEC  =      1120.7496  EHBOND  =         0.0000  RESTRAINT  =         0.0000
 EKCMT  =        74.8227  VIRIAL  =      1543.1503  VOLUME     =     28952.7758
                                                    Density    =         0.0739
 Ewald error estimate:   0.4014E-04
 ------------------------------------------------------------------------------
