-------------------------------------------------------
          Amber 9  SANDER                              2006
          -------------------------------------------------------

  [-O]verwriting output

File Assignments:

 Here is the input file:

MD1.in
&cntrl
imin = 0, ntb = 1
ntpr = 100, ntwx = 100
ntt = 3, gamma_ln = 1.0
tempi = 0.0, temp0 = 310.15
nstlim = 20000, dt = 0.001
cut = 10.0
/

--------------------------------------------------------------------------------
   1.  RESOURCE   USE:
--------------------------------------------------------------------------------

 getting new box info from bottom of inpcrd

 NATOM  =   34161 NTYPES =      17 NBONH =   32600 MBONA  =    1585
 NTHETH =    3784 MTHETA =    2151 NPHIH =    7108 MPHIA  =    5032
 NHPARM =       0 NPARM  =       0 NNB   =   59147 NRES   =   10518
 NBONA  =    1585 NTHETA =    2151 NPHIA =    5032 NUMBND =      62
 NUMANG =     130 NPTRA  =      59 NATYP =      45 NPHB   =       1
 IFBOX  =       1 NMXRS  =      85 IFCAP =       0 NEXTRA =       0
 NCOPY  =       0

     BOX TYPE: RECTILINEAR

--------------------------------------------------------------------------------
   2.  CONTROL  DATA  FOR  THE  RUN
--------------------------------------------------------------------------------

General flags:
     imin    =       0, nmropt  =       0

Nature and format of input:
     ntx     =       1, irest   =       0, ntrx    =       1

Nature and format of output:
     ntxo    =       1, ntpr    =     100, ntrx    =       1, ntwr    =     500
     iwrap   =       0, ntwx    =     100, ntwv    =       0, ntwe    =       0
     ioutfm  =       0, ntwprt  =       0, idecomp =       0, rbornstat=      0

Potential function:
     ntf     =       1, ntb     =       1, igb     =       0, nsnb    =      25
     ipol    =       0, gbsa    =       0, iesp    =       0
     dielc   =   1.00000, cut     =  10.00000, intdiel =   1.00000
     scnb    =   2.00000, scee    =   1.20000

Frozen or restrained atoms:
     ibelly  =       0, ntr     =       0

Molecular dynamics:
     nstlim  =     20000, nscm    =      1000, nrespa  =         1
     t       =   0.00000, dt      =   0.00100, vlimit  =  20.00000

Langevin dynamics temperature regulation:
     ig      =   71277
     temp0   = 310.15000, tempi   =   0.00000, gamma_ln=   1.00000

Ewald parameters:
     verbose =       0, ew_type =       0, nbflag  =       1, use_pme =       1
     vdwmeth =       1, eedmeth =       1, netfrc  =       1
     Box X =   87.721   Box Y =   69.147   Box Z =   71.425
     Alpha =   90.000   Beta  =   90.000   Gamma =   90.000
     NFFT1 =   90       NFFT2 =   72       NFFT3 =   72
     Cutoff=   10.000   Tol   =0.100E-04
     Ewald Coefficient =  0.27511
     Interpolation order =    4

--------------------------------------------------------------------------------
   3.  ATOMIC COORDINATES AND VELOCITIES
--------------------------------------------------------------------------------

 begin time read from input coords =     0.000 ps

 Number of triangulated 3-point waters found:    10314

     Sum of charges from parm topology file =  -0.00000013
     Forcing neutrality...

--------------------------------------------------------------------------------
   4.  RESULTS
 NSTEP =        0   TIME(PS) =       0.000  TEMP(K) =     0.00  PRESS =     0.0
 Etot   =   -129944.8595  EKtot   =         0.0000  EPtot      =   -129944.8595
 BOND   =      9606.0852  ANGLE   =       355.1385  DIHED      =      1874.0977
 1-4 NB =       610.5195  1-4 EEL =      8613.1152  VDWAALS    =     22880.8496
 EELEC  =   -173884.6650  EHBOND  =         0.0000  RESTRAINT  =         0.0000
 Ewald error estimate:   0.5313E-04
 ------------------------------------------------------------------------------

      A V E R A G E S   O V E R   20000 S T E P S

 NSTEP =    20000   TIME(PS) =      20.000  TEMP(K) =   295.19  PRESS =     0.0
 Etot   =    -69919.8306  EKtot   =     30058.3272  EPtot      =    -99978.1578
 BOND   =     20043.9854  ANGLE   =      1545.6737  DIHED      =      2163.4821
 1-4 NB =       704.3843  1-4 EEL =      8586.4025  VDWAALS    =     18821.4518
 EELEC  =   -151843.5376  EHBOND  =         0.0000  RESTRAINT  =         0.0000
 Ewald error estimate:   0.4898E-04
 ------------------------------------------------------------------------------

      R M S  F L U C T U A T I O N S

 NSTEP =    20000   TIME(PS) =      20.000  TEMP(K) =    43.83  PRESS =     0.0
 Etot   =      9710.3374  EKtot   =      4463.0190  EPtot      =      5270.2452
 BOND   =      1513.7493  ANGLE   =       186.4869  DIHED      =        46.7609
 1-4 NB =        18.4238  1-4 EEL =        26.9022  VDWAALS    =      1531.9368
 EELEC  =      5066.2521  EHBOND  =         0.0000  RESTRAINT  =         0.0000
 Ewald error estimate:   0.3618E-04
 ------------------------------------------------------------------------------
