-------------------------------------------------------
          Amber 12 SANDER                              2012
          -------------------------------------------------------

  [-O]verwriting output

File Assignments:

 Here is the input file:

Model 1: prot-nelf-MD1.in
&cntrl
imin = 0, ntb = 1
ntpr = 100, ntwx = 100
ntt = 3, gamma_ln = 1.0
tempi = 0.0, temp0 = 310.15
nstlim = 20000, dt = 0.001
cut = 10.0
/

--------------------------------------------------------------------------------
   1.  RESOURCE   USE:
--------------------------------------------------------------------------------

 getting new box info from bottom of inpcrd

 NATOM  =   34191 NTYPES =      17 NBONH =   32630 MBONA  =    1585
 NTHETH =    3784 MTHETA =    2151 NPHIH =    7279 MPHIA  =    5032
 NHPARM =       0 NPARM  =       0 NNB   =   59187 NRES   =   10528
 NBONA  =    1585 NTHETA =    2151 NPHIA =    5032 NUMBND =      62
 NUMANG =     130 NPTRA  =      60 NATYP =      45 NPHB   =       1
 IFBOX  =       1 NMXRS  =      85 IFCAP =       0 NEXTRA =       0
 NCOPY  =       0

     BOX TYPE: RECTILINEAR

--------------------------------------------------------------------------------
   2.  CONTROL  DATA  FOR  THE  RUN
--------------------------------------------------------------------------------

default_name

General flags:
     imin    =       0, nmropt  =       0

Nature and format of input:
     ntx     =       1, irest   =       0, ntrx    =       1

Nature and format of output:
     ntxo    =       1, ntpr    =     100, ntrx    =       1, ntwr    =     500
     iwrap   =       0, ntwx    =     100, ntwv    =       0, ntwe    =       0
     ioutfm  =       0, ntwprt  =       0, idecomp =       0, rbornstat=      0

Potential function:
     ntf     =       1, ntb     =       1, igb     =       0, nsnb    =      25
     ipol    =       0, gbsa    =       0, iesp    =       0
     dielc   =   1.00000, cut     =  10.00000, intdiel =   1.00000

Frozen or restrained atoms:
     ibelly  =       0, ntr     =       0

Molecular dynamics:
     nstlim  =     20000, nscm    =      1000, nrespa  =         1
     t       =   0.00000, dt      =   0.00100, vlimit  =  20.00000

Langevin dynamics temperature regulation:
     ig      =   71277
     temp0   = 310.15000, tempi   =   0.00000, gamma_ln=   1.00000

Ewald parameters:
     verbose =       0, ew_type =       0, nbflag  =       1, use_pme =       1
     vdwmeth =       1, eedmeth =       1, netfrc  =       1
     Box X =   87.721   Box Y =   69.147   Box Z =   71.425
     Alpha =   90.000   Beta  =   90.000   Gamma =   90.000
     NFFT1 =   90       NFFT2 =   72       NFFT3 =   72
     Cutoff=   10.000   Tol   =0.100E-04
     Ewald Coefficient =  0.27511
     Interpolation order =    4

--------------------------------------------------------------------------------
   3.  ATOMIC COORDINATES AND VELOCITIES
--------------------------------------------------------------------------------

defa
 begin time read from input coords =     0.000 ps

 Number of triangulated 3-point waters found:    10324

     Sum of charges from parm topology file =  -0.00000013
     Forcing neutrality...

--------------------------------------------------------------------------------
   4.  RESULTS
 NSTEP =        0   TIME(PS) =       0.000  TEMP(K) =     0.00  PRESS =     0.0
 Etot   =   -130348.9081  EKtot   =         0.0000  EPtot      =   -130348.9081
 BOND   =      9657.9661  ANGLE   =       349.6938  DIHED      =      1875.2994
 1-4 NB =       607.9686  1-4 EEL =      8606.2301  VDWAALS    =     23046.0314
 EELEC  =   -174492.0976  EHBOND  =         0.0000  RESTRAINT  =         0.0000
 Ewald error estimate:   0.3467E-05
 ------------------------------------------------------------------------------

      A V E R A G E S   O V E R   20000 S T E P S

 NSTEP =    20000   TIME(PS) =      20.000  TEMP(K) =   295.38  PRESS =     0.0
 Etot   =    -69980.7043  EKtot   =     30103.5749  EPtot      =   -100084.2793
 BOND   =     20061.9068  ANGLE   =      1565.7188  DIHED      =      2171.1830
 1-4 NB =       704.8630  1-4 EEL =      8567.5672  VDWAALS    =     18784.3543
 EELEC  =   -151939.8724  EHBOND  =         0.0000  RESTRAINT  =         0.0000
 Ewald error estimate:   0.5070E-04
 ------------------------------------------------------------------------------

      R M S  F L U C T U A T I O N S

 NSTEP =    20000   TIME(PS) =      20.000  TEMP(K) =    44.08  PRESS =     0.0
 Etot   =      9828.6954  EKtot   =      4492.3600  EPtot      =      5359.8045
 BOND   =      1526.1545  ANGLE   =       192.3398  DIHED      =        47.7293
 1-4 NB =        19.1295  1-4 EEL =        27.5436  VDWAALS    =      1552.7842
 EELEC  =      5156.6327  EHBOND  =         0.0000  RESTRAINT  =         0.0000
 Ewald error estimate:   0.3665E-04
 ------------------------------------------------------------------------------
